Version 4.1
SHEET 1 7156 3688
WIRE 3856 -4992 3824 -4992
WIRE 4224 -4992 4176 -4992
WIRE 4336 -4992 4304 -4992
WIRE 4592 -4992 4544 -4992
WIRE 4704 -4992 4672 -4992
WIRE 4704 -4976 4704 -4992
WIRE 4336 -4960 4336 -4992
WIRE 3600 -4928 3552 -4928
WIRE 3728 -4928 3680 -4928
WIRE 4176 -4928 4176 -4992
WIRE 4176 -4928 3984 -4928
WIRE 3984 -4896 3984 -4928
WIRE 3856 -4880 3856 -4992
WIRE 3952 -4880 3856 -4880
WIRE 3552 -4864 3552 -4928
WIRE 4848 -4864 4016 -4864
WIRE 5424 -4864 4976 -4864
WIRE 3728 -4848 3728 -4928
WIRE 3952 -4848 3728 -4848
WIRE 4976 -4848 4976 -4864
WIRE 3728 -4800 3728 -4848
WIRE 3984 -4800 3984 -4832
WIRE 4544 -4800 4544 -4992
WIRE 4544 -4800 3984 -4800
WIRE 3552 -4752 3552 -4784
WIRE 4976 -4736 4976 -4768
WIRE 4176 -4720 4176 -4928
WIRE 4176 -4720 3984 -4720
WIRE 5808 -4704 5600 -4704
WIRE 3984 -4688 3984 -4720
WIRE 5808 -4688 5648 -4688
WIRE 6240 -4688 5872 -4688
WIRE 3856 -4672 3856 -4880
WIRE 3952 -4672 3856 -4672
WIRE 5808 -4672 5696 -4672
WIRE 4848 -4656 4016 -4656
WIRE 5552 -4656 4976 -4656
WIRE 5808 -4656 5728 -4656
WIRE 3728 -4640 3728 -4720
WIRE 3952 -4640 3728 -4640
WIRE 4976 -4640 4976 -4656
WIRE 3728 -4592 3728 -4640
WIRE 3984 -4576 3984 -4624
WIRE 4544 -4576 4544 -4800
WIRE 4544 -4576 3984 -4576
WIRE 4976 -4528 4976 -4560
WIRE 4176 -4512 4176 -4720
WIRE 4176 -4512 3984 -4512
WIRE 3984 -4480 3984 -4512
WIRE 3856 -4464 3856 -4672
WIRE 3952 -4464 3856 -4464
WIRE 4848 -4448 4016 -4448
WIRE 5360 -4448 4976 -4448
WIRE 5520 -4448 5360 -4448
WIRE 3728 -4432 3728 -4512
WIRE 3952 -4432 3728 -4432
WIRE 4976 -4432 4976 -4448
WIRE 3728 -4384 3728 -4432
WIRE 3984 -4368 3984 -4416
WIRE 4544 -4368 4544 -4576
WIRE 4544 -4368 3984 -4368
WIRE 4976 -4320 4976 -4352
WIRE 4176 -4288 4176 -4512
WIRE 4176 -4288 3984 -4288
WIRE 3984 -4256 3984 -4288
WIRE 3856 -4240 3856 -4464
WIRE 3952 -4240 3856 -4240
WIRE 4848 -4224 4016 -4224
WIRE 5600 -4224 5600 -4704
WIRE 5600 -4224 4976 -4224
WIRE 3728 -4208 3728 -4304
WIRE 3952 -4208 3728 -4208
WIRE 4976 -4192 4976 -4224
WIRE 5552 -4160 5552 -4656
WIRE 5840 -4160 5552 -4160
WIRE 3984 -4144 3984 -4192
WIRE 4544 -4144 4544 -4368
WIRE 4544 -4144 3984 -4144
WIRE 6240 -4144 5904 -4144
WIRE 3728 -4128 3728 -4208
WIRE 5520 -4128 5520 -4448
WIRE 5840 -4128 5520 -4128
WIRE 5840 -4112 5520 -4112
WIRE 5840 -4096 5568 -4096
WIRE 4976 -4080 4976 -4112
WIRE 4176 -4016 4176 -4288
WIRE 4176 -4016 3984 -4016
WIRE 3984 -3968 3984 -4016
WIRE 3856 -3952 3856 -4240
WIRE 3952 -3952 3856 -3952
WIRE 4848 -3936 4016 -3936
WIRE 5312 -3936 4992 -3936
WIRE 5648 -3936 5648 -4688
WIRE 5648 -3936 5312 -3936
WIRE 3728 -3920 3728 -4048
WIRE 3952 -3920 3728 -3920
WIRE 4992 -3904 4992 -3936
WIRE 3984 -3856 3984 -3904
WIRE 4544 -3856 4544 -4144
WIRE 4544 -3856 3984 -3856
WIRE 3728 -3840 3728 -3920
WIRE 4992 -3792 4992 -3824
WIRE 4176 -3712 4176 -4016
WIRE 4176 -3712 3984 -3712
WIRE 3984 -3680 3984 -3712
WIRE 3856 -3664 3856 -3952
WIRE 3952 -3664 3856 -3664
WIRE 4848 -3648 4016 -3648
WIRE 5520 -3648 5520 -4112
WIRE 5520 -3648 4960 -3648
WIRE 5696 -3648 5696 -4672
WIRE 5696 -3648 5520 -3648
WIRE 3728 -3632 3728 -3760
WIRE 3952 -3632 3728 -3632
WIRE 4960 -3616 4960 -3648
WIRE 3728 -3568 3728 -3632
WIRE 3984 -3568 3984 -3616
WIRE 4544 -3568 4544 -3856
WIRE 4544 -3568 3984 -3568
WIRE 5424 -3568 5424 -4864
WIRE 5856 -3568 5424 -3568
WIRE 5360 -3552 5360 -4448
WIRE 5856 -3552 5360 -3552
WIRE 6240 -3552 5920 -3552
WIRE 5312 -3520 5312 -3936
WIRE 5856 -3520 5312 -3520
WIRE 4960 -3504 4960 -3536
WIRE 5856 -3504 5712 -3504
WIRE 4176 -3472 4176 -3712
WIRE 4176 -3472 3984 -3472
WIRE 3984 -3424 3984 -3472
WIRE 3856 -3408 3856 -3664
WIRE 3952 -3408 3856 -3408
WIRE 4848 -3392 4016 -3392
WIRE 5568 -3392 5568 -4096
WIRE 5568 -3392 4960 -3392
WIRE 5712 -3392 5712 -3504
WIRE 5712 -3392 5568 -3392
WIRE 5728 -3392 5728 -4656
WIRE 5728 -3392 5712 -3392
WIRE 3728 -3376 3728 -3488
WIRE 3952 -3376 3728 -3376
WIRE 4960 -3360 4960 -3392
WIRE 3984 -3328 3984 -3360
WIRE 4544 -3328 4544 -3568
WIRE 4544 -3328 3984 -3328
WIRE 3728 -3296 3728 -3376
WIRE 4960 -3248 4960 -3280
WIRE 3728 -3184 3728 -3216
WIRE -2240 -3152 -3136 -3152
WIRE -1984 -3152 -2160 -3152
WIRE -2240 -3040 -3056 -3040
WIRE -1984 -3040 -1984 -3152
WIRE -1984 -3040 -2160 -3040
WIRE -1776 -2976 -1872 -2976
WIRE -1616 -2976 -1696 -2976
WIRE -592 -2944 -608 -2944
WIRE 1776 -2944 1744 -2944
WIRE 1888 -2944 1856 -2944
WIRE -1408 -2928 -1472 -2928
WIRE -1264 -2928 -1328 -2928
WIRE -2240 -2912 -2976 -2912
WIRE -1984 -2912 -1984 -3040
WIRE -1984 -2912 -2160 -2912
WIRE 4208 -2912 4176 -2912
WIRE 4576 -2912 4528 -2912
WIRE 4688 -2912 4656 -2912
WIRE 4944 -2912 4896 -2912
WIRE 5056 -2912 5024 -2912
WIRE -1104 -2896 -1136 -2896
WIRE -1008 -2896 -1024 -2896
WIRE 2640 -2896 2384 -2896
WIRE 2768 -2896 2720 -2896
WIRE 2848 -2896 2768 -2896
WIRE 2976 -2896 2928 -2896
WIRE 3040 -2896 2976 -2896
WIRE 3168 -2896 3120 -2896
WIRE 3200 -2896 3168 -2896
WIRE 5056 -2896 5056 -2912
WIRE -1008 -2880 -1008 -2896
WIRE 4688 -2880 4688 -2912
WIRE -512 -2864 -560 -2864
WIRE -320 -2864 -432 -2864
WIRE -256 -2864 -320 -2864
WIRE -128 -2864 -192 -2864
WIRE 3952 -2864 3904 -2864
WIRE 4080 -2864 4032 -2864
WIRE 2384 -2848 2384 -2896
WIRE 4528 -2848 4528 -2912
WIRE 4528 -2848 4336 -2848
WIRE -1776 -2832 -1792 -2832
WIRE -1680 -2832 -1696 -2832
WIRE 624 -2832 592 -2832
WIRE 752 -2832 704 -2832
WIRE 816 -2832 752 -2832
WIRE 944 -2832 896 -2832
WIRE 1024 -2832 944 -2832
WIRE 1152 -2832 1104 -2832
WIRE 1200 -2832 1152 -2832
WIRE 1328 -2832 1280 -2832
WIRE 1360 -2832 1328 -2832
WIRE 1472 -2832 1424 -2832
WIRE 1504 -2832 1472 -2832
WIRE 1904 -2832 1824 -2832
WIRE 2000 -2832 1984 -2832
WIRE 2768 -2832 2768 -2896
WIRE 2976 -2832 2976 -2896
WIRE 3168 -2832 3168 -2896
WIRE -1680 -2816 -1680 -2832
WIRE -1008 -2816 -1200 -2816
WIRE 2000 -2816 2000 -2832
WIRE 4336 -2816 4336 -2848
WIRE -1392 -2800 -1408 -2800
WIRE -1296 -2800 -1312 -2800
WIRE 96 -2800 -224 -2800
WIRE 144 -2800 96 -2800
WIRE 240 -2800 224 -2800
WIRE 3904 -2800 3904 -2864
WIRE 4208 -2800 4208 -2912
WIRE 4304 -2800 4208 -2800
WIRE -2240 -2784 -2896 -2784
WIRE -1984 -2784 -1984 -2912
WIRE -1984 -2784 -2160 -2784
WIRE -1296 -2784 -1296 -2800
WIRE -592 -2784 -592 -2944
WIRE -560 -2784 -560 -2864
WIRE -560 -2784 -592 -2784
WIRE 240 -2784 240 -2800
WIRE 1472 -2784 1472 -2832
WIRE 5200 -2784 4368 -2784
WIRE 5840 -2784 5344 -2784
WIRE 1824 -2768 1824 -2832
WIRE 4080 -2768 4080 -2864
WIRE 4304 -2768 4080 -2768
WIRE -224 -2752 -224 -2800
WIRE 1632 -2752 1568 -2752
WIRE 1744 -2752 1744 -2944
WIRE 1744 -2752 1712 -2752
WIRE 1792 -2752 1744 -2752
WIRE 5344 -2752 5344 -2784
WIRE -1792 -2736 -1792 -2832
WIRE -1136 -2736 -1136 -2896
WIRE -320 -2736 -320 -2864
WIRE -256 -2736 -320 -2736
WIRE 96 -2736 96 -2800
WIRE 1888 -2736 1888 -2944
WIRE 1888 -2736 1856 -2736
WIRE 2048 -2736 1888 -2736
WIRE 4080 -2736 4080 -2768
WIRE -1984 -2720 -1984 -2784
WIRE -1872 -2720 -1872 -2976
WIRE -1872 -2720 -1984 -2720
WIRE -1824 -2720 -1872 -2720
WIRE -1408 -2720 -1408 -2800
WIRE -1200 -2720 -1200 -2816
WIRE -1168 -2720 -1200 -2720
WIRE -128 -2720 -128 -2864
WIRE -128 -2720 -192 -2720
WIRE 64 -2720 -128 -2720
WIRE 752 -2720 752 -2832
WIRE 944 -2720 944 -2832
WIRE 1152 -2720 1152 -2832
WIRE 1328 -2720 1328 -2832
WIRE 1568 -2720 1568 -2752
WIRE 1792 -2720 1744 -2720
WIRE 4336 -2720 4336 -2752
WIRE 4896 -2720 4896 -2912
WIRE 4896 -2720 4336 -2720
WIRE -1616 -2704 -1616 -2976
WIRE -1616 -2704 -1760 -2704
WIRE -1584 -2704 -1616 -2704
WIRE -1472 -2704 -1472 -2928
WIRE -1472 -2704 -1504 -2704
WIRE -1440 -2704 -1472 -2704
WIRE -1008 -2704 -1008 -2816
WIRE -1008 -2704 -1104 -2704
WIRE -944 -2704 -1008 -2704
WIRE -256 -2704 -368 -2704
WIRE 224 -2704 128 -2704
WIRE 272 -2704 224 -2704
WIRE 2384 -2704 2384 -2768
WIRE 2768 -2704 2768 -2768
WIRE 2976 -2704 2976 -2768
WIRE 3168 -2704 3168 -2768
WIRE -1824 -2688 -1872 -2688
WIRE -1264 -2688 -1264 -2928
WIRE -1264 -2688 -1376 -2688
WIRE -1168 -2688 -1264 -2688
WIRE 64 -2688 0 -2688
WIRE 3904 -2688 3904 -2720
WIRE -1440 -2672 -1504 -2672
WIRE -560 -2672 -560 -2784
WIRE -512 -2672 -560 -2672
WIRE -368 -2672 -368 -2704
WIRE -368 -2672 -432 -2672
WIRE 1472 -2672 1472 -2704
WIRE -2240 -2640 -2800 -2640
WIRE -1984 -2640 -1984 -2720
WIRE -1984 -2640 -2160 -2640
WIRE -1792 -2640 -1792 -2672
WIRE -1136 -2640 -1136 -2672
WIRE -368 -2640 -368 -2672
WIRE -224 -2640 -224 -2688
WIRE 96 -2640 96 -2672
WIRE 96 -2640 -224 -2640
WIRE 4528 -2640 4528 -2848
WIRE 4528 -2640 4336 -2640
WIRE 5344 -2640 5344 -2672
WIRE -1408 -2624 -1408 -2656
WIRE -224 -2624 -224 -2640
WIRE 1744 -2624 1744 -2720
WIRE 1744 -2624 1728 -2624
WIRE 1824 -2624 1824 -2704
WIRE 1840 -2624 1824 -2624
WIRE 1952 -2624 1920 -2624
WIRE 6224 -2624 6016 -2624
WIRE -1872 -2608 -1872 -2688
WIRE 752 -2608 752 -2656
WIRE 944 -2608 944 -2656
WIRE 1152 -2608 1152 -2656
WIRE 1328 -2608 1328 -2656
WIRE 1952 -2608 1952 -2624
WIRE 2640 -2608 2384 -2608
WIRE 2768 -2608 2720 -2608
WIRE 2848 -2608 2768 -2608
WIRE 2976 -2608 2928 -2608
WIRE 3040 -2608 2976 -2608
WIRE 3168 -2608 3120 -2608
WIRE 3216 -2608 3168 -2608
WIRE 4336 -2608 4336 -2640
WIRE 6224 -2608 6064 -2608
WIRE 6720 -2608 6288 -2608
WIRE 4208 -2592 4208 -2800
WIRE 4304 -2592 4208 -2592
WIRE 6224 -2592 6112 -2592
WIRE 0 -2576 0 -2688
WIRE 0 -2576 -112 -2576
WIRE 64 -2576 0 -2576
WIRE 224 -2576 224 -2704
WIRE 224 -2576 144 -2576
WIRE 5200 -2576 4368 -2576
WIRE 5968 -2576 5344 -2576
WIRE 6224 -2576 6144 -2576
WIRE -1504 -2560 -1504 -2672
WIRE 4080 -2560 4080 -2656
WIRE 4304 -2560 4080 -2560
WIRE -1792 -2544 -1792 -2560
WIRE -368 -2544 -368 -2560
WIRE 2384 -2544 2384 -2608
WIRE 2768 -2544 2768 -2608
WIRE 2976 -2544 2976 -2608
WIRE 3168 -2544 3168 -2608
WIRE 5344 -2544 5344 -2576
WIRE -1136 -2528 -1136 -2560
WIRE -224 -2528 -224 -2544
WIRE -112 -2528 -112 -2576
WIRE 0 -2528 0 -2576
WIRE 4080 -2528 4080 -2560
WIRE -1408 -2512 -1408 -2544
WIRE -2240 -2496 -2720 -2496
WIRE -1984 -2496 -1984 -2640
WIRE -1984 -2496 -2160 -2496
WIRE 4336 -2496 4336 -2544
WIRE 4896 -2496 4896 -2720
WIRE 4896 -2496 4336 -2496
WIRE -320 -2448 -320 -2736
WIRE -112 -2432 -112 -2448
WIRE 4528 -2432 4528 -2640
WIRE 4528 -2432 4336 -2432
WIRE 5344 -2432 5344 -2464
WIRE 0 -2416 0 -2448
WIRE 2384 -2416 2384 -2464
WIRE 2768 -2416 2768 -2480
WIRE 2976 -2416 2976 -2480
WIRE 3168 -2416 3168 -2480
WIRE 4336 -2400 4336 -2432
WIRE 4208 -2384 4208 -2592
WIRE 4304 -2384 4208 -2384
WIRE -2240 -2368 -2640 -2368
WIRE -1984 -2368 -1984 -2496
WIRE -1984 -2368 -2160 -2368
WIRE 5200 -2368 4368 -2368
WIRE 5776 -2368 5344 -2368
WIRE 5936 -2368 5776 -2368
WIRE 4080 -2352 4080 -2448
WIRE 4304 -2352 4080 -2352
WIRE -320 -2336 -320 -2368
WIRE -112 -2336 -112 -2352
WIRE 5344 -2336 5344 -2368
WIRE 4080 -2320 4080 -2352
WIRE 4336 -2288 4336 -2336
WIRE 4896 -2288 4896 -2496
WIRE 4896 -2288 4336 -2288
WIRE -64 -2256 -272 -2256
WIRE 224 -2256 224 -2576
WIRE 224 -2256 16 -2256
WIRE -2240 -2240 -2528 -2240
WIRE -1984 -2240 -1984 -2368
WIRE -1984 -2240 -2160 -2240
WIRE -320 -2224 -320 -2240
WIRE 5344 -2224 5344 -2256
WIRE 4528 -2208 4528 -2432
WIRE 4528 -2208 4336 -2208
WIRE 4336 -2176 4336 -2208
WIRE 4208 -2160 4208 -2384
WIRE 4304 -2160 4208 -2160
WIRE 5200 -2144 4368 -2144
WIRE 6016 -2144 6016 -2624
WIRE 6016 -2144 5344 -2144
WIRE 4080 -2128 4080 -2240
WIRE 4304 -2128 4080 -2128
WIRE 5344 -2096 5344 -2144
WIRE 5968 -2080 5968 -2576
WIRE 6256 -2080 5968 -2080
WIRE 4080 -2064 4080 -2128
WIRE 4336 -2064 4336 -2112
WIRE 4896 -2064 4896 -2288
WIRE 4896 -2064 4336 -2064
WIRE 6720 -2064 6320 -2064
WIRE 5936 -2048 5936 -2368
WIRE 6256 -2048 5936 -2048
WIRE 6256 -2032 5936 -2032
WIRE 6256 -2016 5984 -2016
WIRE 5344 -1984 5344 -2016
WIRE 4528 -1936 4528 -2208
WIRE 4528 -1936 4336 -1936
WIRE 4336 -1888 4336 -1936
WIRE 4208 -1872 4208 -2160
WIRE 4304 -1872 4208 -1872
WIRE 5200 -1856 4368 -1856
WIRE 5728 -1856 5360 -1856
WIRE 6064 -1856 6064 -2608
WIRE 6064 -1856 5728 -1856
WIRE 4080 -1840 4080 -1984
WIRE 4304 -1840 4080 -1840
WIRE 5360 -1808 5360 -1856
WIRE 4080 -1776 4080 -1840
WIRE 4336 -1776 4336 -1824
WIRE 4896 -1776 4896 -2064
WIRE 4896 -1776 4336 -1776
WIRE 5360 -1696 5360 -1728
WIRE 4528 -1632 4528 -1936
WIRE 4528 -1632 4336 -1632
WIRE 4336 -1600 4336 -1632
WIRE 4208 -1584 4208 -1872
WIRE 4304 -1584 4208 -1584
WIRE 5200 -1568 4368 -1568
WIRE 5936 -1568 5936 -2032
WIRE 5936 -1568 5328 -1568
WIRE 6112 -1568 6112 -2592
WIRE 6112 -1568 5936 -1568
WIRE 4080 -1552 4080 -1696
WIRE 4304 -1552 4080 -1552
WIRE 5328 -1520 5328 -1568
WIRE 4080 -1504 4080 -1552
WIRE 4336 -1488 4336 -1536
WIRE 4896 -1488 4896 -1776
WIRE 4896 -1488 4336 -1488
WIRE 5840 -1488 5840 -2784
WIRE 6272 -1488 5840 -1488
WIRE 5776 -1472 5776 -2368
WIRE 6272 -1472 5776 -1472
WIRE 6720 -1472 6336 -1472
WIRE 5728 -1440 5728 -1856
WIRE 6272 -1440 5728 -1440
WIRE 6272 -1424 6128 -1424
WIRE 5328 -1408 5328 -1440
WIRE 4528 -1392 4528 -1632
WIRE 4528 -1392 4336 -1392
WIRE 4336 -1344 4336 -1392
WIRE 4208 -1328 4208 -1584
WIRE 4304 -1328 4208 -1328
WIRE 5200 -1312 4368 -1312
WIRE 5984 -1312 5984 -2016
WIRE 5984 -1312 5328 -1312
WIRE 6128 -1312 6128 -1424
WIRE 6128 -1312 5984 -1312
WIRE 6144 -1312 6144 -2576
WIRE 6144 -1312 6128 -1312
WIRE 4080 -1296 4080 -1424
WIRE 4304 -1296 4080 -1296
WIRE 4080 -1264 4080 -1296
WIRE 5328 -1264 5328 -1312
WIRE 4336 -1248 4336 -1280
WIRE 4896 -1248 4896 -1488
WIRE 4896 -1248 4336 -1248
WIRE -3136 -1184 -3136 -3152
WIRE -3056 -1184 -3056 -3040
WIRE -2976 -1184 -2976 -2912
WIRE -2896 -1184 -2896 -2784
WIRE -2800 -1184 -2800 -2640
WIRE -2720 -1184 -2720 -2496
WIRE -2640 -1184 -2640 -2368
WIRE -2528 -1184 -2528 -2240
WIRE 4080 -1152 4080 -1184
WIRE 5328 -1152 5328 -1184
WIRE 1920 -1040 1904 -1040
WIRE 2288 -1008 2272 -1008
WIRE 2432 -992 2368 -992
WIRE 2560 -992 2496 -992
WIRE 2672 -992 2560 -992
WIRE 2800 -992 2752 -992
WIRE 3328 -992 3296 -992
WIRE 112 -976 96 -976
WIRE 2016 -928 2000 -928
WIRE 2144 -928 2096 -928
WIRE 2464 -928 2144 -928
WIRE 4000 -928 3648 -928
WIRE 2000 -912 2000 -928
WIRE 3296 -912 3296 -992
WIRE 3376 -912 3296 -912
WIRE 3408 -912 3376 -912
WIRE 3584 -912 3488 -912
WIRE 2800 -896 2800 -992
WIRE 2960 -896 2800 -896
WIRE 3728 -896 3648 -896
WIRE 4000 -896 4000 -928
WIRE 96 -880 96 -976
WIRE 144 -880 96 -880
WIRE 272 -880 208 -880
WIRE 2464 -880 2464 -928
WIRE 496 -864 480 -864
WIRE 2144 -864 2144 -928
WIRE 2560 -864 2560 -992
WIRE 2560 -864 2496 -864
WIRE 2960 -864 2960 -896
WIRE 272 -848 272 -880
WIRE 2272 -848 2272 -1008
WIRE 2272 -848 2176 -848
WIRE 2368 -848 2368 -992
WIRE 2368 -848 2272 -848
WIRE 2432 -848 2368 -848
WIRE 3376 -848 3376 -912
WIRE 96 -832 96 -880
WIRE 480 -832 480 -864
WIRE 1120 -832 480 -832
WIRE 1200 -832 1120 -832
WIRE 1248 -832 1200 -832
WIRE 1408 -832 1328 -832
WIRE 1456 -832 1408 -832
WIRE 1600 -832 1536 -832
WIRE 1648 -832 1600 -832
WIRE 1904 -832 1904 -1040
WIRE 1904 -832 1728 -832
WIRE 2016 -832 1904 -832
WIRE 2112 -832 2016 -832
WIRE 2608 -832 2496 -832
WIRE 2240 -816 2176 -816
WIRE 2608 -800 2608 -832
WIRE 2672 -800 2608 -800
WIRE 2800 -800 2800 -896
WIRE 2800 -800 2752 -800
WIRE 4000 -784 4000 -816
WIRE 2144 -768 2144 -800
WIRE 2464 -768 2464 -816
WIRE 2464 -768 2144 -768
WIRE 2608 -768 2608 -800
WIRE 2464 -752 2464 -768
WIRE 2960 -752 2960 -784
WIRE 3376 -752 3376 -784
WIRE 272 -736 272 -768
WIRE 96 -720 96 -752
WIRE 848 -720 832 -720
WIRE 944 -720 928 -720
WIRE 1200 -720 1200 -832
WIRE 1408 -720 1408 -832
WIRE 1600 -720 1600 -832
WIRE 944 -704 944 -720
WIRE 2016 -704 2016 -832
WIRE 2096 -704 2016 -704
WIRE 2240 -704 2240 -816
WIRE 2240 -704 2176 -704
WIRE 2352 -704 2240 -704
WIRE 3136 -688 3088 -688
WIRE 3312 -688 3136 -688
WIRE 2608 -672 2608 -688
WIRE 2240 -656 2240 -704
WIRE 2352 -656 2352 -704
WIRE 2464 -656 2464 -672
WIRE 112 -624 96 -624
WIRE 736 -624 672 -624
WIRE 880 -624 816 -624
WIRE 928 -624 880 -624
WIRE 1072 -624 1008 -624
WIRE 1200 -608 1200 -656
WIRE 1408 -608 1408 -656
WIRE 1600 -608 1600 -656
WIRE 3136 -608 3136 -688
WIRE 3312 -608 3312 -688
WIRE 832 -576 832 -720
WIRE 832 -576 800 -576
WIRE 2560 -576 2560 -864
WIRE 1072 -560 1072 -624
WIRE 1120 -560 1120 -832
WIRE 1120 -560 1072 -560
WIRE 2352 -560 2352 -576
WIRE 496 -544 480 -544
WIRE 800 -544 800 -576
WIRE 2240 -544 2240 -576
WIRE 880 -528 880 -624
WIRE 880 -528 832 -528
WIRE 96 -512 96 -624
WIRE 144 -512 96 -512
WIRE 272 -512 208 -512
WIRE 480 -512 480 -544
WIRE 672 -512 672 -624
WIRE 672 -512 480 -512
WIRE 768 -512 672 -512
WIRE 880 -496 832 -496
WIRE 928 -496 880 -496
WIRE 1072 -496 1072 -560
WIRE 1072 -496 1008 -496
WIRE 272 -480 272 -512
WIRE 3136 -480 3136 -528
WIRE 3312 -480 3312 -528
WIRE 96 -464 96 -512
WIRE 2352 -464 2352 -480
WIRE 2560 -464 2560 -496
WIRE 880 -448 880 -496
WIRE 800 -432 800 -480
WIRE 2016 -384 2016 -704
WIRE 2224 -384 2016 -384
WIRE 2512 -384 2304 -384
WIRE 272 -368 272 -400
WIRE 96 -352 96 -384
WIRE 2560 -352 2560 -368
WIRE 880 -336 880 -384
WIRE 800 -320 800 -352
WIRE 1904 -288 1904 -832
WIRE 3728 -288 3728 -896
WIRE 3728 -288 1904 -288
WIRE -1648 192 -1680 192
WIRE -1520 192 -1568 192
WIRE -1440 192 -1472 192
WIRE -1312 192 -1360 192
WIRE -1680 208 -1680 192
WIRE -1472 224 -1472 192
WIRE -816 240 -864 240
WIRE -688 240 -736 240
WIRE -3136 256 -3136 -1120
WIRE -1744 256 -3136 256
WIRE -1312 256 -1312 192
WIRE -1120 256 -1312 256
WIRE -1744 288 -1744 256
WIRE -1120 288 -1120 256
WIRE -864 304 -864 240
WIRE -864 304 -1088 304
WIRE -688 304 -688 240
WIRE -1152 320 -1424 320
WIRE -992 336 -1088 336
WIRE -1424 352 -1424 320
WIRE -1408 352 -1424 352
WIRE -864 368 -864 304
WIRE -1744 384 -1744 368
WIRE -1520 384 -1520 192
WIRE -1120 384 -1120 352
WIRE -1120 384 -1520 384
WIRE -688 416 -688 384
WIRE -3056 464 -3056 -1120
WIRE -1744 464 -3056 464
WIRE -1312 464 -1312 256
WIRE -1120 464 -1312 464
WIRE -1744 496 -1744 464
WIRE -1120 496 -1120 464
WIRE -864 512 -864 448
WIRE -864 512 -1088 512
WIRE -1152 528 -1440 528
WIRE -992 544 -992 336
WIRE -992 544 -1088 544
WIRE -1440 560 -1440 528
WIRE -1408 560 -1440 560
WIRE -864 576 -864 512
WIRE -1744 592 -1744 576
WIRE -1520 608 -1520 384
WIRE -1120 608 -1120 560
WIRE -1120 608 -1520 608
WIRE 3856 608 3792 608
WIRE 4256 624 4176 624
WIRE 4352 624 4336 624
WIRE 4464 624 4432 624
WIRE 3792 640 3792 608
WIRE 3856 640 3856 608
WIRE 4464 640 4464 624
WIRE -2976 656 -2976 -1120
WIRE -1744 656 -2976 656
WIRE -1312 672 -1312 464
WIRE -1120 672 -1312 672
WIRE -96 672 -128 672
WIRE 16 672 -16 672
WIRE 240 672 16 672
WIRE 2912 672 2848 672
WIRE 3040 672 2976 672
WIRE 3152 672 3040 672
WIRE 3280 672 3232 672
WIRE -1744 688 -1744 656
WIRE -128 688 -128 672
WIRE 3600 688 3568 688
WIRE 3696 688 3680 688
WIRE 3952 688 3904 688
WIRE 4080 688 4032 688
WIRE -1120 704 -1120 672
WIRE -864 720 -864 656
WIRE -864 720 -1088 720
WIRE 240 720 240 672
WIRE -1152 736 -1424 736
WIRE 1504 736 1472 736
WIRE 2496 736 2480 736
WIRE 2624 736 2576 736
WIRE 2944 736 2624 736
WIRE -992 752 -992 544
WIRE -992 752 -1088 752
WIRE 2480 752 2480 736
WIRE -1424 768 -1424 736
WIRE -1408 768 -1424 768
WIRE 16 768 16 672
WIRE 768 768 736 768
WIRE 3280 768 3280 672
WIRE 3376 768 3280 768
WIRE 3792 768 3792 720
WIRE 3792 768 3632 768
WIRE 4000 768 3792 768
WIRE 4176 768 4176 624
WIRE 4256 768 4176 768
WIRE 4368 768 4336 768
WIRE 4480 768 4448 768
WIRE -864 784 -864 720
WIRE 2944 784 2944 736
WIRE 4480 784 4480 768
WIRE -1744 800 -1744 768
WIRE 736 800 736 768
WIRE 960 800 736 800
WIRE 2624 800 2624 736
WIRE 3040 800 3040 672
WIRE 3040 800 2976 800
WIRE 3472 800 3456 800
WIRE -1520 816 -1520 608
WIRE -1120 816 -1120 768
WIRE -1120 816 -1520 816
WIRE 2848 816 2848 672
WIRE 2848 816 2656 816
WIRE 2912 816 2848 816
WIRE 4000 816 4000 768
WIRE 1472 832 1472 736
WIRE 1520 832 1472 832
WIRE 1664 832 1584 832
WIRE 1712 832 1664 832
WIRE 1872 832 1792 832
WIRE 1920 832 1872 832
WIRE 2080 832 2000 832
WIRE 2128 832 2080 832
WIRE 2272 832 2208 832
WIRE 2320 832 2272 832
WIRE 2496 832 2400 832
WIRE 2592 832 2496 832
WIRE 3088 832 2976 832
WIRE 3632 832 3632 768
WIRE 4080 832 4080 688
WIRE 4080 832 4032 832
WIRE 4176 832 4176 768
WIRE 4176 832 4080 832
WIRE 16 848 16 816
WIRE 240 848 240 800
WIRE 240 848 64 848
WIRE 320 848 240 848
WIRE 480 848 384 848
WIRE 2720 848 2656 848
WIRE 3696 848 3696 688
WIRE 3696 848 3664 848
WIRE 3728 848 3696 848
WIRE 3904 848 3904 688
WIRE 3904 848 3808 848
WIRE 3968 848 3904 848
WIRE -2896 864 -2896 -1120
WIRE -1744 864 -2896 864
WIRE 960 864 960 800
WIRE 3088 864 3088 832
WIRE 3152 864 3088 864
WIRE 3280 864 3280 768
WIRE 3280 864 3232 864
WIRE 3456 864 3456 800
WIRE 3568 864 3568 688
WIRE 3568 864 3456 864
WIRE 3600 864 3568 864
WIRE 4080 864 4032 864
WIRE 1472 880 1472 832
WIRE 3696 880 3664 880
WIRE 4080 880 4080 864
WIRE -1744 896 -1744 864
WIRE -1312 896 -1312 672
WIRE -1120 896 -1312 896
WIRE 240 896 240 848
WIRE 2624 896 2624 864
WIRE 2944 896 2944 848
WIRE 2944 896 2624 896
WIRE 3088 896 3088 864
WIRE 2944 912 2944 896
WIRE 3696 912 3696 880
WIRE -1120 928 -1120 896
WIRE 4176 928 4176 832
WIRE 4256 928 4176 928
WIRE 4384 928 4336 928
WIRE 4496 928 4464 928
WIRE -864 944 -864 864
WIRE -864 944 -1088 944
WIRE -96 944 -112 944
WIRE 688 944 672 944
WIRE 1664 944 1664 832
WIRE 1872 944 1872 832
WIRE 2080 944 2080 832
WIRE 2272 944 2272 832
WIRE 4496 944 4496 928
WIRE -1152 960 -1424 960
WIRE 2496 960 2496 832
WIRE 2576 960 2496 960
WIRE 2720 960 2720 848
WIRE 2720 960 2656 960
WIRE 2832 960 2720 960
WIRE -992 976 -992 752
WIRE -992 976 -1088 976
WIRE 480 976 480 848
WIRE 688 976 688 944
WIRE 688 976 480 976
WIRE 3632 976 3632 896
WIRE 3808 976 3632 976
WIRE 4000 976 4000 880
WIRE 4000 976 3808 976
WIRE -1424 992 -1424 960
WIRE -1408 992 -1424 992
WIRE 960 992 960 944
WIRE 1472 992 1472 960
WIRE 3088 992 3088 976
WIRE -1744 1008 -1744 976
WIRE 2720 1008 2720 960
WIRE 2832 1008 2832 960
WIRE 2944 1008 2944 992
WIRE -992 1024 -992 976
WIRE -464 1024 -992 1024
WIRE -400 1024 -464 1024
WIRE -112 1024 -112 944
WIRE -112 1024 -320 1024
WIRE 16 1024 16 864
WIRE 16 1024 -112 1024
WIRE 688 1024 688 976
WIRE 3808 1024 3808 976
WIRE -1520 1040 -1520 816
WIRE -1120 1040 -1120 992
WIRE -1120 1040 -1520 1040
WIRE -864 1040 -864 944
WIRE -112 1040 -112 1024
WIRE 1664 1056 1664 1008
WIRE 1872 1056 1872 1008
WIRE 2080 1056 2080 1008
WIRE 2272 1056 2272 1008
WIRE 3376 1072 3376 768
WIRE -464 1088 -464 1024
WIRE 240 1088 240 960
WIRE 3040 1088 3040 800
WIRE 2832 1104 2832 1088
WIRE 16 1120 16 1024
WIRE 2720 1120 2720 1088
WIRE -2800 1136 -2800 -1120
WIRE -1744 1136 -2800 1136
WIRE 3808 1136 3808 1104
WIRE -112 1152 -112 1120
WIRE 688 1152 688 1104
WIRE -1744 1168 -1744 1136
WIRE -1312 1168 -1312 896
WIRE -1120 1168 -1312 1168
WIRE 16 1168 16 1136
WIRE 3376 1184 3376 1152
WIRE 240 1200 240 1152
WIRE 240 1200 64 1200
WIRE 336 1200 240 1200
WIRE 480 1200 480 976
WIRE 480 1200 400 1200
WIRE 2832 1200 2832 1184
WIRE 3040 1200 3040 1168
WIRE -1120 1216 -1120 1168
WIRE -464 1216 -464 1152
WIRE 2048 1216 2032 1216
WIRE 2144 1216 2128 1216
WIRE -864 1232 -864 1120
WIRE -864 1232 -1088 1232
WIRE 240 1232 240 1200
WIRE 768 1232 736 1232
WIRE 2144 1232 2144 1216
WIRE -1152 1248 -1424 1248
WIRE -1744 1264 -1744 1248
WIRE -992 1264 -992 1024
WIRE -992 1264 -1088 1264
WIRE 736 1264 736 1232
WIRE 992 1264 736 1264
WIRE -1424 1280 -1424 1248
WIRE -1408 1280 -1424 1280
WIRE 2496 1280 2496 960
WIRE 2704 1280 2496 1280
WIRE 2992 1280 2784 1280
WIRE 1936 1312 1872 1312
WIRE 2080 1312 2016 1312
WIRE 2128 1312 2080 1312
WIRE 2272 1312 2208 1312
WIRE 3040 1312 3040 1296
WIRE -1520 1328 -1520 1040
WIRE -1120 1328 -1120 1280
WIRE -1120 1328 -1520 1328
WIRE -864 1328 -864 1232
WIRE 16 1360 16 1216
WIRE 144 1360 16 1360
WIRE 240 1360 240 1312
WIRE 240 1360 144 1360
WIRE 992 1360 992 1264
WIRE 2032 1360 2032 1216
WIRE 2032 1360 2000 1360
WIRE 2272 1376 2272 1312
WIRE 2400 1376 2272 1376
WIRE 144 1392 144 1360
WIRE 1776 1392 1744 1392
WIRE 2000 1392 2000 1360
WIRE -2720 1408 -2720 -1120
WIRE -1744 1408 -2720 1408
WIRE 2080 1408 2080 1312
WIRE 2080 1408 2032 1408
WIRE 2400 1408 2400 1376
WIRE 2400 1408 2384 1408
WIRE 1744 1424 1744 1392
WIRE 1872 1424 1872 1312
WIRE 1872 1424 1744 1424
WIRE 1968 1424 1872 1424
WIRE 2080 1440 2032 1440
WIRE 2128 1440 2080 1440
WIRE 2272 1440 2272 1376
WIRE 2272 1440 2208 1440
WIRE -1744 1456 -1744 1408
WIRE -1312 1472 -1312 1168
WIRE -1120 1472 -1312 1472
WIRE 992 1472 992 1440
WIRE 2080 1488 2080 1440
WIRE -1120 1504 -1120 1472
WIRE 2000 1504 2000 1456
WIRE -864 1520 -864 1408
WIRE -864 1520 -1088 1520
WIRE -1152 1536 -1424 1536
WIRE -1744 1552 -1744 1536
WIRE -992 1552 -992 1264
WIRE -992 1552 -1088 1552
WIRE -1424 1584 -1424 1536
WIRE -1408 1584 -1424 1584
WIRE -864 1600 -864 1520
WIRE 2080 1600 2080 1552
WIRE -1520 1616 -1520 1328
WIRE -1120 1616 -1120 1568
WIRE -1120 1616 -1520 1616
WIRE 2000 1616 2000 1584
WIRE -2640 1680 -2640 -1120
WIRE -1744 1680 -2640 1680
WIRE -1744 1712 -1744 1680
WIRE -1312 1712 -1312 1472
WIRE -1120 1712 -1312 1712
WIRE -1120 1760 -1120 1712
WIRE -864 1776 -864 1680
WIRE -864 1776 -1088 1776
WIRE -1152 1792 -1424 1792
WIRE -1744 1808 -1744 1792
WIRE -992 1808 -992 1552
WIRE -992 1808 -1088 1808
WIRE -1424 1824 -1424 1792
WIRE -1408 1824 -1424 1824
WIRE -1520 1856 -1520 1616
WIRE -1120 1856 -1120 1824
WIRE -1120 1856 -1520 1856
WIRE -864 1872 -864 1776
WIRE -2528 1936 -2528 -1120
WIRE -1744 1936 -2528 1936
WIRE -1312 1936 -1312 1712
WIRE -1120 1936 -1312 1936
WIRE -1744 1968 -1744 1936
WIRE -1120 2000 -1120 1936
WIRE -864 2016 -864 1952
WIRE -864 2016 -1088 2016
WIRE -1152 2032 -1424 2032
WIRE -992 2048 -992 1808
WIRE -992 2048 -1088 2048
WIRE -1744 2064 -1744 2048
WIRE -1424 2064 -1424 2032
WIRE -1408 2064 -1424 2064
WIRE -864 2064 -864 2016
WIRE -1520 2112 -1520 1856
WIRE -1120 2112 -1120 2064
WIRE -1120 2112 -1520 2112
WIRE -864 2176 -864 2144
FLAG 4480 784 0
FLAG 4496 944 0
FLAG 4080 880 0
FLAG 3696 912 0
FLAG 4464 640 0
FLAG 3808 1136 0
FLAG 3856 640 0
FLAG 960 992 0
FLAG 992 1472 0
FLAG 768 768 Vo1
IOPIN 768 768 Out
FLAG 768 1232 Vo2
IOPIN 768 1232 Out
FLAG 4000 -784 0
FLAG 3376 -752 0
FLAG 2608 -672 0
FLAG 2240 -544 0
FLAG 2560 -352 0
FLAG 2000 -912 0
FLAG 2464 -656 0
FLAG 2352 -464 0
FLAG 1920 -1040 Vsq
IOPIN 1920 -1040 Out
FLAG 3328 -992 Vlpf
IOPIN 3328 -992 Out
FLAG 2960 -752 0
FLAG 3136 -480 0
FLAG 3312 -480 0
FLAG 3088 -688 Vfcw
IOPIN 3088 -688 In
FLAG 880 -336 0
FLAG 944 -704 0
FLAG 800 -320 0
FLAG 496 -864 Vi
IOPIN 496 -864 Out
FLAG 496 -544 Vq
IOPIN 496 -544 Out
FLAG 1200 -608 0
FLAG 1408 -608 0
FLAG 1600 -608 0
FLAG 272 -736 0
FLAG 272 -368 0
FLAG 112 -976 Vloi
IOPIN 112 -976 Out
FLAG 112 -624 Vloq
IOPIN 112 -624 Out
FLAG 3088 992 0
FLAG 2720 1120 0
FLAG 3040 1312 0
FLAG 2480 752 0
FLAG 2944 1008 0
FLAG 2832 1200 0
FLAG 1504 736 Vw1
IOPIN 1504 736 Out
FLAG 1776 1392 Vw2
IOPIN 1776 1392 Out
FLAG 96 -720 0
FLAG 96 -352 0
FLAG 1872 1056 0
FLAG 2080 1056 0
FLAG 2272 1056 0
FLAG 1472 992 0
FLAG 688 1152 0
FLAG -96 944 Vpa
IOPIN -96 944 Out
FLAG -128 688 0
FLAG 144 1392 0
FLAG -112 1152 0
FLAG -1008 -2880 0
FLAG -1136 -2528 0
FLAG -944 -2704 Vb
IOPIN -944 -2704 Out
FLAG 1952 -2608 0
FLAG 2000 -2816 0
FLAG 1568 -2720 0
FLAG 2048 -2736 Vlna
IOPIN 2048 -2736 Out
FLAG 944 -2608 0
FLAG 752 -2608 0
FLAG 1472 -2672 0
FLAG 1152 -2608 0
FLAG 1328 -2608 0
FLAG 2384 -2704 0
FLAG 2384 -2416 0
FLAG 2768 -2704 0
FLAG 2768 -2416 0
FLAG 4336 -4960 0
FLAG 4704 -4976 0
FLAG 3552 -4752 0
FLAG 3824 -4992 Vlpf1
IOPIN 3824 -4992 In
FLAG 4688 -2880 0
FLAG 5056 -2896 0
FLAG 3904 -2688 0
FLAG 4080 -1152 0
FLAG 4176 -2912 Vlpf2
IOPIN 4176 -2912 In
FLAG 2080 1600 0
FLAG 2144 1232 0
FLAG 2000 1616 0
FLAG 2384 1408 Vw1
IOPIN 2384 1408 In
FLAG -1472 224 0
FLAG -688 416 0
FLAG -864 2176 0
FLAG -464 1216 0
FLAG -1408 560 Vc2
IOPIN -1408 560 Out
FLAG -1408 768 Vc3
IOPIN -1408 768 Out
FLAG -1408 992 Vc4
IOPIN -1408 992 Out
FLAG -1408 1280 Vc5
IOPIN -1408 1280 Out
FLAG -1408 1584 Vc6
IOPIN -1408 1584 Out
FLAG -1408 1824 Vc7
IOPIN -1408 1824 Out
FLAG -1408 2064 Vc8
IOPIN -1408 2064 Out
FLAG -1408 352 Vc1
IOPIN -1408 352 Out
FLAG -1680 208 0
FLAG -1744 2064 0
FLAG -1744 1808 0
FLAG -1744 1552 0
FLAG -1744 1264 0
FLAG -1744 1008 0
FLAG -1744 800 0
FLAG -1744 592 0
FLAG -1744 384 0
FLAG -1872 -2608 0
FLAG -1792 -2544 0
FLAG -1680 -2816 0
FLAG -1296 -2784 0
FLAG -1408 -2512 0
FLAG -1504 -2560 0
FLAG -368 -2544 0
FLAG 0 -2416 0
FLAG -320 -2224 0
FLAG 240 -2784 0
FLAG -224 -2528 0
FLAG -112 -2336 0
FLAG -608 -2944 Vb
IOPIN -608 -2944 In
FLAG 1504 -2832 Velec
IOPIN 1504 -2832 Out
FLAG 1728 -2624 Velec
IOPIN 1728 -2624 In
FLAG 272 -2704 Vco
IOPIN 272 -2704 Out
FLAG 592 -2832 Vco
IOPIN 592 -2832 In
FLAG 3728 -3184 0
FLAG 4848 -4864 Va1
IOPIN 4848 -4864 Out
FLAG 4848 -4656 Va2
IOPIN 4848 -4656 Out
FLAG 4848 -4448 Va3
IOPIN 4848 -4448 Out
FLAG 4848 -4224 Va4
IOPIN 4848 -4224 Out
FLAG 4848 -3936 Va5
IOPIN 4848 -3936 Out
FLAG 4848 -3648 Va6
IOPIN 4848 -3648 Out
FLAG 4848 -3392 Va7
IOPIN 4848 -3392 Out
FLAG 4976 -4736 0
FLAG 4976 -4528 0
FLAG 4976 -4320 0
FLAG 4976 -4080 0
FLAG 4992 -3792 0
FLAG 4960 -3504 0
FLAG 4960 -3248 0
FLAG 5344 -2640 0
FLAG 5344 -2432 0
FLAG 5344 -2224 0
FLAG 5344 -1984 0
FLAG 5360 -1696 0
FLAG 5328 -1408 0
FLAG 5328 -1152 0
FLAG 5200 -2784 Vb1
IOPIN 5200 -2784 Out
FLAG 5200 -2576 Vb2
IOPIN 5200 -2576 Out
FLAG 5200 -2368 Vb3
IOPIN 5200 -2368 Out
FLAG 5200 -2144 Vb4
IOPIN 5200 -2144 Out
FLAG 5200 -1856 Vb5
IOPIN 5200 -1856 Out
FLAG 5200 -1568 Vb6
IOPIN 5200 -1568 Out
FLAG 5200 -1312 Vb7
IOPIN 5200 -1312 Out
FLAG 2976 -2704 0
FLAG 2976 -2416 0
FLAG 3168 -2704 0
FLAG 3168 -2416 0
FLAG 2288 -1008 Vtri
IOPIN 2288 -1008 Out
FLAG 1664 1056 0
FLAG 672 944 Vmix
IOPIN 672 944 In
FLAG 6240 -4688 Vip2
IOPIN 6240 -4688 Out
FLAG 6240 -4144 Vip1
IOPIN 6240 -4144 Out
FLAG 6240 -3552 Vip0
IOPIN 6240 -3552 Out
FLAG 6720 -2608 Vqd2
IOPIN 6720 -2608 Out
FLAG 6720 -2064 Vqd1
IOPIN 6720 -2064 Out
FLAG 6720 -1472 Vqd0
IOPIN 6720 -1472 Out
FLAG 3200 -2896 Vlpf1
IOPIN 3200 -2896 Out
FLAG 3216 -2608 Vlpf2
IOPIN 3216 -2608 Out
FLAG 3376 1184 0
FLAG 3472 800 Vdac
IOPIN 3472 800 Out
SYMBOL OpAmps\\OP07 3632 800 M0
SYMATTR InstName U3
SYMBOL OpAmps\\OP07 4000 784 M0
SYMATTR InstName U6
SYMBOL res 4352 608 R90
WINDOW 0 0 56 VBottom 2
WINDOW 3 32 56 VTop 2
SYMATTR InstName R8
SYMATTR Value 1k
SYMBOL res 4352 752 R90
WINDOW 0 0 56 VBottom 2
WINDOW 3 32 56 VTop 2
SYMATTR InstName R11
SYMATTR Value 2k
SYMBOL res 4352 912 R90